electric-grid/physical/synthetic/synAustinTD/models/syn-austin-D_only-v03/P1R/base/opendss/p1rhs1_1247/Master.dss
Clear

New Circuit.substation_p1rhs1_69 bus1=p1rhs1_69 pu=1.0 basekV=69.0 R1=1e-05 X1=1e-05 R0=1e-05 X0=1e-05

Redirect Transformers.dss
Redirect p1rhs1_1247--p1rdt6634/Transformers.dss
Redirect p1rhs1_1247--p1rdt5979/Transformers.dss
Redirect p1rhs1_1247--p1rdt2397/Transformers.dss
Redirect p1rhs1_1247--p1rdt6578/Transformers.dss
Redirect Regulators.dss
Redirect p1rhs1_1247--p1rdt6634/Regulators.dss
Redirect p1rhs1_1247--p1rdt5979/Regulators.dss
Redirect p1rhs1_1247--p1rdt6634/Loads.dss
Redirect p1rhs1_1247--p1rdt5979/Loads.dss
Redirect p1rhs1_1247--p1rdt2397/Loads.dss
Redirect p1rhs1_1247--p1rdt6578/Loads.dss
Redirect LineCodes.dss
Redirect p1rhs1_1247--p1rdt6634/LineCodes.dss
Redirect p1rhs1_1247--p1rdt5979/LineCodes.dss
Redirect p1rhs1_1247--p1rdt2397/LineCodes.dss
Redirect p1rhs1_1247--p1rdt6578/LineCodes.dss
Redirect Lines.dss
Redirect p1rhs1_1247--p1rdt6634/Lines.dss
Redirect p1rhs1_1247--p1rdt5979/Lines.dss
Redirect p1rhs1_1247--p1rdt2397/Lines.dss
Redirect p1rhs1_1247--p1rdt6578/Lines.dss

Set Voltagebases=[0.2080002494301389, 0.48, 7.199560000000001, 12.47, 69.0]

Calcvoltagebases

Buscoords Buscoords.dss

Solve